
OS:Version,
  {a6a4fd54-a4f7-47a1-bde8-c528f31933dd}, !- Handle
  3.5.0;                                  !- Version Identifier

