
OS:Version,
  {40b6ae47-dc38-4b21-aa80-242a62e3fe26}, !- Handle
  3.5.0;                                  !- Version Identifier

